<?xml version="1.0" encoding="UTF-8"?>
<vehicleDefinitions xmlns="http://www.matsim.org/files/dtd" xmlns:xsi="http://www.w3.org/2001/XMLSchema-instance" xsi:schemaLocation="http://www.matsim.org/files/dtd http://www.matsim.org/files/dtd/vehicleDefinitions_v1.0.xsd">
<vehicleType id="bus_type1">
   <description>bus type for sijin example</description>
   <capacity>
      <seats persons="30"/>
      <standingRoom persons="20"/>
   </capacity>
   <length meter="3"/>
</vehicleType>
    <vehicle id="bus_no1" type="bus_type1"/>
    <vehicle id="bus_no2" type="bus_type1"/>
    <vehicle id="bus_no3" type="bus_type1"/>
    <vehicle id="bus_no4" type="bus_type1"/>
    <vehicle id="bus_no5" type="bus_type1"/>
    <vehicle id="bus_no6" type="bus_type1"/>
</vehicleDefinitions>